Version 4
SHEET 1 2032 820
WIRE 416 -1408 272 -1408
WIRE 656 -1408 480 -1408
WIRE 160 -1280 16 -1280
WIRE 272 -1280 272 -1408
WIRE 272 -1280 240 -1280
WIRE 304 -1280 272 -1280
WIRE 432 -1280 384 -1280
WIRE 544 -1280 432 -1280
WIRE 656 -1264 656 -1408
WIRE 656 -1264 608 -1264
WIRE 752 -1264 656 -1264
WIRE 544 -1248 512 -1248
WIRE -160 -1232 -160 -1264
WIRE -160 -1232 -256 -1232
WIRE 16 -1232 16 -1280
WIRE 432 -1216 432 -1280
WIRE -256 -1200 -256 -1232
WIRE -160 -1200 -160 -1232
WIRE 512 -1136 512 -1248
WIRE 656 -1136 656 -1264
WIRE 656 -1136 512 -1136
WIRE 16 -1120 16 -1152
WIRE 432 -1120 432 -1152
WIRE 432 -1120 416 -1120
WIRE 416 -976 256 -976
WIRE 656 -976 416 -976
WIRE 256 -960 256 -976
WIRE 416 -912 416 -976
WIRE 144 -800 0 -800
WIRE 256 -800 256 -880
WIRE 256 -800 224 -800
WIRE 288 -800 256 -800
WIRE 416 -800 416 -848
WIRE 416 -800 368 -800
WIRE 528 -800 416 -800
WIRE 656 -784 656 -976
WIRE 656 -784 592 -784
WIRE 736 -784 656 -784
WIRE 528 -768 464 -768
WIRE 0 -752 0 -800
WIRE 256 -736 256 -800
WIRE 464 -704 464 -768
WIRE 0 -640 0 -672
WIRE 256 -640 256 -672
WIRE 256 -640 240 -640
FLAG -256 -1200 0
FLAG -160 -1344 +V
FLAG -160 -1120 -V
FLAG 576 -1232 +V
FLAG 576 -1296 -V
FLAG 16 -1120 0
FLAG 432 -1120 0
FLAG 560 -816 +V
FLAG 560 -752 -V
FLAG 0 -640 0
FLAG 256 -640 0
FLAG 464 -704 0
FLAG 752 -1264 SK_OUT
FLAG 736 -784 MFB_OUT
SYMBOL voltage -160 -1360 R0
WINDOW 123 0 0 Left 0
WINDOW 39 0 0 Left 0
SYMATTR InstName V1
SYMATTR Value 5
SYMBOL voltage -160 -1216 R0
WINDOW 123 0 0 Left 0
WINDOW 39 0 0 Left 0
SYMATTR InstName V2
SYMATTR Value 5
SYMBOL voltage 16 -1248 R0
WINDOW 123 24 124 Left 2
WINDOW 39 0 0 Left 0
SYMATTR Value2 AC 1
SYMATTR InstName V6
SYMATTR Value 0
SYMBOL res 256 -1296 R90
WINDOW 0 0 56 VBottom 2
WINDOW 3 32 56 VTop 2
SYMATTR InstName R5
SYMATTR Value 1.17k
SYMBOL res 400 -1296 R90
WINDOW 0 0 56 VBottom 2
WINDOW 3 32 56 VTop 2
SYMATTR InstName R10
SYMATTR Value 21.3k
SYMBOL cap 416 -1216 R0
SYMATTR InstName C8
SYMATTR Value 200p
SYMBOL cap 480 -1424 R90
WINDOW 0 0 32 VBottom 2
WINDOW 3 32 32 VTop 2
SYMATTR InstName C9
SYMATTR Value 2n
SYMBOL voltage 0 -768 R0
WINDOW 123 24 124 Left 2
WINDOW 39 0 0 Left 0
SYMATTR Value2 AC 1
SYMATTR InstName V7
SYMATTR Value 0
SYMBOL res 240 -816 R90
WINDOW 0 0 56 VBottom 2
WINDOW 3 32 56 VTop 2
SYMATTR InstName R11
SYMATTR Value 5.84k
SYMBOL res 384 -816 R90
WINDOW 0 0 56 VBottom 2
WINDOW 3 32 56 VTop 2
SYMATTR InstName R12
SYMATTR Value 2.92k
SYMBOL cap 240 -736 R0
SYMATTR InstName C10
SYMATTR Value 1.5n
SYMBOL res 272 -864 R180
WINDOW 0 36 76 Left 2
WINDOW 3 36 40 Left 2
SYMATTR InstName R13
SYMATTR Value 5.84k
SYMBOL cap 400 -912 R0
SYMATTR InstName C11
SYMATTR Value 381p
SYMBOL TL07x 576 -1264 R0
SYMATTR InstName U1
SYMBOL TL07x 560 -784 M180
SYMATTR InstName U2
TEXT 16 -1496 Left 2 !.ac dec 100 10 10MEG
TEXT 416 -1496 Left 2 ;Sallen-Key
TEXT 320 -1024 Left 2 ;Multiple Feedback
